PRIMVEC
6 0 0 
6 6 0
0 0 15
PRIMCOORD
45 1
He	0	0	0.123457	
Ar	0.5	0.5	0.123457	
Ar	0.5	0	0.185185	
Ne	3.35775	4.60132	6.338361
Ar	1.63288	3.78107	2.074651
Ar	8.61889	7.92383	8.843121
Ar	0	0.5	0.185185	
Ar	2.42206	5.95029	3.437861
Ar	4.11515	7.21257	7.442451
Ar	4.59262	1.12649	1.701161
Ar	3.38245	2.33375	3.374921
Ar	4.05361	4.16205	4.434741
Ar	4.98879	6.49173	5.291621
Ar	2.73183	8.64783	6.9439 1
Ar	8.46928	5.62263	7.8277 1
Ar	0.241282	0.342906   2.58024	
Ar	3.01947	2.73591	1.004321
Ne	7.00409	7.58721	7.643491
Ar	10.0117	3.78727	8.819351
Ar	8.13943	2.83465	5.009841
Ar	7.06063	9.44964	8.908581
Ar	1.1	2.2	3.3	
Ar	2.42293	7.87401	5.110581
Ne	5.37103	13.4478	8.997041
Ar	12.7548	5.93178	8.929751
Ar	12.1094	3.94591	8.901461
Ar	6.28343	4.36078	4.463411
Ar	5.54155	3.00176	1.425841
Ar	10.4801	5.96571	8.968941
Ar	4.47252	9.18117	8.097971
Ar	1.18598	3.00497	0.17361	
Ar	2.86248	4.64336	0.34240
Ar	2.88838	10.3588	8.706071
Ar	1.85013	1.06384	1.544751
Ne	7.71868	6.07986	5.808391
Ar	5.67578	11.0813	8.928021
Ar	3.8676	5.28353	2.103441
Ar	2.94767	12.5456	8.948611
Ar	5.53845	8.6162	6.449661
Ar	5.20015	2.4725	4.378871
Ar	5.862	10.8284	6.718941
Ar	10.4675	2.92057	6.608851
Ar	12.5979	3.00714	6.7455 1
Ar	14.6491	3.69399	7.125061
Ar	11.7003	5.40686	6.990141
